Version 4
SHEET 1 880 680
WIRE 624 -48 112 -48
WIRE 112 16 112 -48
WIRE 256 16 112 16
WIRE 288 16 256 16
WIRE 400 16 368 16
WIRE 432 16 400 16
WIRE 560 16 512 16
WIRE 624 16 560 16
WIRE 256 48 256 16
WIRE 112 80 112 16
WIRE 400 80 400 16
WIRE 560 96 560 16
WIRE 256 144 256 128
WIRE 112 224 112 160
WIRE 256 224 256 208
WIRE 256 224 112 224
WIRE 400 224 400 160
WIRE 400 224 256 224
WIRE 560 224 560 160
WIRE 560 224 400 224
WIRE 624 224 560 224
FLAG 624 224 GND
IOPIN 624 224 BiDir
FLAG 624 16 SENSOR
IOPIN 624 16 BiDir
FLAG 624 -48 HEATER
IOPIN 624 -48 BiDir
SYMBOL res 96 64 R0
SYMATTR InstName R1
SYMATTR Value 20R/20W
SYMBOL res 240 32 R0
SYMATTR InstName R2
SYMATTR Value 2k2
SYMBOL LED 240 144 R0
SYMATTR InstName D1
SYMATTR Value LED
SYMBOL res 416 32 R270
WINDOW 0 32 56 VTop 2
WINDOW 3 0 56 VBottom 2
SYMATTR InstName R3
SYMATTR Value 100R
SYMBOL polcap 544 96 R0
SYMATTR InstName C1
SYMATTR Value 4700µ
SYMBOL res 384 64 R0
SYMATTR InstName R4
SYMATTR Value 500R pot.
SYMBOL res 272 32 R270
WINDOW 0 32 56 VTop 2
WINDOW 3 0 56 VBottom 2
SYMATTR InstName R5
SYMATTR Value 1Meg
LINE Normal 432 80 432 80 2
LINE Normal 432 80 432 80 2
