Version 4
SHEET 1 880 1060
WIRE 336 0 -80 0
WIRE -80 96 -80 0
WIRE -64 96 -80 96
WIRE -80 144 -80 96
WIRE 480 160 464 160
WIRE 464 176 464 160
WIRE -224 208 -272 208
WIRE -208 208 -224 208
WIRE -224 224 -224 208
WIRE -128 224 -224 224
WIRE 176 224 128 224
WIRE -80 288 -80 240
WIRE 128 288 128 224
WIRE 128 288 -80 288
WIRE 160 288 128 288
WIRE 192 288 160 288
WIRE 336 288 336 0
WIRE 336 288 272 288
WIRE 384 288 336 288
WIRE 464 288 464 256
WIRE 592 288 464 288
WIRE -80 320 -80 288
WIRE 384 320 384 288
WIRE 464 368 464 288
WIRE -592 384 -608 384
WIRE 160 384 160 288
WIRE -608 416 -608 384
WIRE -80 416 -80 384
WIRE 384 416 384 400
WIRE 400 416 384 416
WIRE 384 432 384 416
WIRE -608 528 -608 496
WIRE 384 528 384 512
WIRE 464 528 464 464
WIRE 464 528 384 528
WIRE 160 560 160 464
WIRE 464 560 464 528
WIRE -576 800 -624 800
WIRE -48 816 -80 816
WIRE 160 816 32 816
WIRE 208 816 160 816
WIRE 336 816 288 816
WIRE -624 832 -624 800
WIRE 160 864 160 816
WIRE -624 944 -624 912
WIRE 160 960 160 928
FLAG 464 560 0
FLAG -64 96 +12V
FLAG -80 416 0
FLAG 160 560 0
FLAG 480 160 +3V3
FLAG 592 288 OUT
IOPIN 592 288 Out
FLAG -272 208 IN
IOPIN -272 208 In
FLAG 176 224 HEATER
IOPIN 176 224 Out
FLAG 160 960 0
FLAG 336 816 PULLUP_CMD
IOPIN 336 816 Out
FLAG -80 816 TxD
IOPIN -80 816 In
FLAG -576 800 TxD
IOPIN -576 800 Out
FLAG -624 944 0
FLAG -608 528 0
FLAG -592 384 IN
SYMBOL nmos -128 144 R0
SYMATTR InstName M1
SYMATTR Value BTS5012SDA
SYMBOL npn 400 368 R0
SYMATTR InstName Q1
SYMATTR Value BCR135
SYMBOL res 400 416 M0
SYMATTR InstName R1
SYMATTR Value 47k
SYMBOL res 400 304 M0
SYMATTR InstName R2
SYMATTR Value 10k
SYMBOL cap -96 320 R0
SYMATTR InstName C1
SYMATTR Value 10n
SYMBOL res 448 160 R0
SYMATTR InstName R3
SYMATTR Value 4k7
SYMBOL res 144 368 R0
SYMATTR InstName R4
SYMATTR Value {Rpar}
SYMBOL res 176 304 R270
WINDOW 0 32 56 VTop 2
WINDOW 3 0 56 VBottom 2
SYMATTR InstName R5
SYMATTR Value {Rser}
SYMBOL res 48 800 R90
WINDOW 0 0 56 VBottom 2
WINDOW 3 32 56 VTop 2
SYMATTR InstName R6
SYMATTR Value 1k5
SYMBOL cap 144 864 R0
SYMATTR InstName C2
SYMATTR Value 10n
SYMBOL res 304 800 R90
WINDOW 0 0 56 VBottom 2
WINDOW 3 32 56 VTop 2
SYMATTR InstName R7
SYMATTR Value 10k
SYMBOL voltage -624 816 R0
WINDOW 123 0 0 Left 2
WINDOW 39 0 0 Left 2
SYMATTR InstName V1
SYMATTR Value PULSE(0 3.3 0 10n 10n 10u 20u)
SYMBOL res -624 400 R0
SYMATTR InstName R9
SYMATTR Value 1k
TEXT -658 1014 Left 2 !.tran 100u
TEXT -616 616 Left 2 !.param Rpar 2k2\n.param Rser 220k
RECTANGLE Normal 560 544 320 304 1
RECTANGLE Normal -208 160 -144 240
RECTANGLE Normal -240 128 80 272 1
RECTANGLE Normal -336 464 112 64 2
RECTANGLE Normal -192 1008 80 752 2
RECTANGLE Normal 560 1008 112 752 2
